@<TRIPOS>MOLECULE
RET
   68    68     1     0     1 
SMALL
USER_CHARGES
@<TRIPOS>ATOM
  1 N       3.008829    1.001981   -1.287676 N     1 RET    -0.5242 ****
  2 H1      3.578152    1.397109   -2.012765 H     1 RET     0.3346 ****
  3 CA      2.987539   -0.432942   -1.480674 CT    1 RET     0.0996 ****
  4 H2      2.592289   -0.894850   -0.578365 H1    1 RET     0.0694 ****
  5 C       4.380734   -1.010358   -1.766725 C     1 RET     0.5814 ****
  6 O       5.193770   -0.341583   -2.327938 O     1 RET    -0.4979 ****
  7 CB      2.064031   -0.787732   -2.660867 CT    1 RET    -0.1825 ****
  8 H3      2.127035   -1.850576   -2.879869 HC    1 RET     0.0589 ****
  9 H4      2.432177   -0.268822   -3.542213 HC    1 RET     0.0589 ****
 10 CG      0.607693   -0.404578   -2.401912 CT    1 RET     0.0693 ****
 11 H5      0.587754    0.626181   -2.066959 HC    1 RET    -0.0003 ****
 12 H6      0.212904   -1.004221   -1.583076 HC    1 RET    -0.0003 ****
 13 CD     -0.275179   -0.602285   -3.638227 CT    1 RET    -0.0502 ****
 14 H7     -0.263207   -1.645208   -3.937216 HC    1 RET     0.0518 ****
 15 H8      0.122801   -0.041464   -4.481338 HC    1 RET     0.0518 ****
 16 CE     -1.735829   -0.213057   -3.429238 CT    1 RET    -0.1426 ****
 17 H9     -2.150724   -0.731670   -2.572524 H1    1 RET     0.1359 ****
 18 H10    -2.324099   -0.472048   -4.300875 H1    1 RET     0.1359 ****
 19 NZ     -1.861564    1.232992   -3.203194 NT    1 RET    -0.2314 ****
 20 H11    -1.014860    1.759381   -3.207199 H     1 RET     0.3124 ****
 21 C15    -2.966690    1.889858   -2.997216 CM    1 RET     0.0291 ****
 22 H12    -2.829687    2.943945   -2.858241 HA    1 RET     0.2118 ****
 23 C14    -4.246421    1.331566   -2.950220 CD    1 RET    -0.2528 ****
 24 H13    -4.335461    0.272147   -3.095251 HA    1 RET     0.1372 ****
 25 C13    -5.408442    2.047203   -2.732290 CD    1 RET     0.1847 ****
 26 C20    -5.437215    3.539955   -2.513327 CT    1 RET    -0.0156 ****
 27 H14    -4.465486    4.003575   -2.540313 HC    1 RET     0.0414 ****
 28 H15    -5.879425    3.761047   -1.549762 HC    1 RET     0.0414 ****
 29 H16    -6.045963    4.011721   -3.276164 HC    1 RET     0.0414 ****
 30 C12    -6.639442    1.317681   -2.718275 CD    1 RET    -0.3392 ****
 31 H17    -6.572456    0.256915   -2.879247 HA    1 RET     0.1828 ****
 32 C11    -7.862556    1.865421   -2.518276 CD    1 RET     0.0605 ****
 33 H18    -7.935573    2.923749   -2.357221 HA    1 RET     0.1958 ****
 34 C10    -9.074542    1.100876   -2.511266 CD    1 RET    -0.3651 ****
 35 H19    -8.960546    0.044044   -2.678255 HA    1 RET     0.1879 ****
 36 C9    -10.326263    1.576461   -2.317301 CD    1 RET     0.1534 ****
 37 C19   -10.655091    3.027288   -2.070244 CT    1 RET    -0.0889 ****
 38 H20    -9.788658    3.668663   -2.066250 HC    1 RET     0.0537 ****
 39 H21   -11.153116    3.136316   -1.113614 HC    1 RET     0.0537 ****
 40 H22   -11.332481    3.389853   -2.834931 HC    1 RET     0.0537 ****
 41 C8    -11.429141    0.612653   -2.348280 CD    1 RET    -0.1867 ****
 42 H23   -11.150315   -0.411424   -2.525197 HA    1 RET     0.1151 ****
 43 C7    -12.716465    0.904191   -2.169321 CD    1 RET     0.0204 ****
 44 H24   -12.995407    1.921760   -1.958320 HA    1 RET     0.1050 ****
 45 C6    -13.824780   -0.087045   -2.185319 CD    1 RET    -0.1317 ****
 46 C1    -14.644778   -0.160585   -0.879130 CT    1 RET     0.1279 ****
 47 C16   -15.057298    1.247209   -0.407298 CT    1 RET    -0.1523 ****
 48 H25   -15.555382    1.801324   -1.197402 HC    1 RET     0.0411 ****
 49 H26   -14.213691    1.833589   -0.058425 HC    1 RET     0.0411 ****
 50 H27   -15.750255    1.164913    0.424828 HC    1 RET     0.0411 ****
 51 C17   -13.790568   -0.808959    0.228887 CT    1 RET    -0.1523 ****
 52 H28   -14.341729   -0.836994    1.164211 HC    1 RET     0.0411 ****
 53 H29   -12.877989   -0.249458    0.399810 HC    1 RET     0.0411 ****
 54 H30   -13.508594   -1.825663   -0.024152 HC    1 RET     0.0411 ****
 55 C2    -15.936529   -0.970172   -1.097180 CT    1 RET    -0.0549 ****
 56 H31   -16.656728   -0.349496   -1.628211 HC    1 RET     0.0389 ****
 57 H32   -16.377294   -1.197076   -0.129807 HC    1 RET     0.0389 ****
 58 C3    -15.710162   -2.242584   -1.901051 CT    1 RET    -0.0798 ****
 59 H33   -16.637356   -2.800469   -1.993093 HC    1 RET     0.0398 ****
 60 H34   -15.005644   -2.893532   -1.391820 HC    1 RET     0.0398 ****
 61 C4    -15.178960   -1.880714   -3.280674 CT    1 RET    -0.0685 ****
 62 H35   -15.988886   -1.506128   -3.904874 HC    1 RET     0.0536 ****
 63 H36   -14.805327   -2.767939   -3.787600 HC    1 RET     0.0536 ****
 64 C5    -14.078735   -0.839486   -3.256670 CM    1 RET     0.0666 ****
 65 C18   -13.361081   -0.734198   -4.583331 CT    1 RET    -0.2217 ****
 66 H37   -12.724725   -1.600646   -4.744229 HC    1 RET     0.0682 ****
 67 H38   -12.753814    0.153834   -4.678337 HC    1 RET     0.0682 ****
 68 H39   -14.091268   -0.731589   -5.388558 HC    1 RET     0.0682 ****
@<TRIPOS>BOND
    1     1     2 1
    2     1     3 1
    3     3     4 1
    4     3     5 1
    5     3     7 1
    6     5     6 1
    7     7     8 1
    8     7     9 1
    9     7    10 1
   10    10    11 1
   11    10    12 1
   12    10    13 1
   13    13    14 1
   14    13    15 1
   15    13    16 1
   16    16    17 1
   17    16    18 1
   18    16    19 1
   19    19    20 1
   20    19    21 1
   21    21    22 1
   22    21    23 1
   23    23    24 1
   24    23    25 1
   25    25    26 1
   26    25    30 1
   27    26    27 1
   28    26    28 1
   29    26    29 1
   30    30    31 1
   31    30    32 1
   32    32    33 1
   33    32    34 1
   34    34    35 1
   35    34    36 1
   36    36    37 1
   37    36    41 1
   38    37    38 1
   39    37    39 1
   40    37    40 1
   41    41    42 1
   42    41    43 1
   43    43    44 1
   44    43    45 1
   45    45    46 1
   46    45    64 1
   47    46    47 1
   48    46    51 1
   49    46    55 1
   50    47    48 1
   51    47    49 1
   52    47    50 1
   53    51    52 1
   54    51    53 1
   55    51    54 1
   56    55    56 1
   57    55    57 1
   58    55    58 1
   59    58    59 1
   60    58    60 1
   61    58    61 1
   62    61    62 1
   63    61    63 1
   64    61    64 1
   65    64    65 1
   66    65    66 1
   67    65    67 1
   68    65    68 1
@<TRIPOS>SUBSTRUCTURE
      1  RET              1 ****               0 ****  **** 
